src/tests/data/grids/RAW/trafos_for_sc_to_rxgb.raw
0,   100.00, 33, 0, 1, 50.00     / PSS(R)E-33.4    THU, FEB 13 2025  17:04


     1,'            ', 275.0000,1,   1,   1,   1,1.00000,   0.0000,1.10000,0.90000,1.10000,0.90000
     2,'            ', 132.0000,1,   1,   1,   1,1.00000,   0.0000,1.10000,0.90000,1.10000,0.90000
     3,'            ',  21.0000,1,   1,   1,   1,1.00000,   0.0000,1.10000,0.90000,1.10000,0.90000
     4,'            ',   0.4200,1,   1,   1,   1,1.00000,   0.0000,1.10000,0.90000,1.10000,0.90000
0 / END OF BUS DATA, BEGIN LOAD DATA
0 / END OF LOAD DATA, BEGIN FIXED SHUNT DATA
0 / END OF FIXED SHUNT DATA, BEGIN GENERATOR DATA
0 / END OF GENERATOR DATA, BEGIN BRANCH DATA
0 / END OF BRANCH DATA, BEGIN TRANSFORMER DATA
     1,     2,     0,'1 ',2,3,2, 3.00000E+5, 5.00000E-4,2,'TR1         ',1,   1,1.0000,   0,1.0000,   0,1.0000,   0,1.0000,'            '
 1.50000E+6, 1.00000E-1,  1110.00
275.000,   0.000,   0.000,  1110.00,     0.00,     0.00, 0,      0, 1.10000, 0.90000, 1.10000, 0.90000,  33, 0, 0.00000, 0.00000,  0.000
132.000,   0.000
     1,     2,     0,'2 ',2,3,2, 3.00000E+5, 5.00000E-2,2,'TR2         ',1,   1,1.0000,   0,1.0000,   0,1.0000,   0,1.0000,'            '
 1.50000E+6, 1.00000E-1,  1110.00
275.000,   0.000,   0.000,  1110.00,     0.00,     0.00, 0,      0, 1.10000, 0.90000, 1.10000, 0.90000,  33, 0, 0.00000, 0.00000,  0.000
132.000,   0.000
     3,     4,     0,'1 ',2,3,2, 2.70000E+2, 1.00000E-2,2,'TR3         ',1,   1,1.0000,   0,1.0000,   0,1.0000,   0,1.0000,'            '
 2.35000E+3, 4.60000E-2,     0.25
21.0000,   0.000,   0.000,     0.25,     0.00,     0.00, 0,      0, 1.10000, 0.90000, 1.10000, 0.90000,  33, 0, 0.00000, 0.00000,  0.000
0.42000,   0.000
0 / END OF TRANSFORMER DATA, BEGIN AREA DATA
0 / END OF AREA DATA, BEGIN TWO-TERMINAL DC DATA
0 / END OF TWO-TERMINAL DC DATA, BEGIN VSC DC LINE DATA
0 / END OF VSC DC LINE DATA, BEGIN IMPEDANCE CORRECTION DATA
0 / END OF IMPEDANCE CORRECTION DATA, BEGIN MULTI-TERMINAL DC DATA
0 / END OF MULTI-TERMINAL DC DATA, BEGIN MULTI-SECTION LINE DATA
0 / END OF MULTI-SECTION LINE DATA, BEGIN ZONE DATA
0 / END OF ZONE DATA, BEGIN INTER-AREA TRANSFER DATA
0 / END OF INTER-AREA TRANSFER DATA, BEGIN OWNER DATA
0 / END OF OWNER DATA, BEGIN FACTS DEVICE DATA
0 / END OF FACTS DEVICE DATA, BEGIN SWITCHED SHUNT DATA
0 / END OF SWITCHED SHUNT DATA, BEGIN GNE DATA
0 / END OF GNE DATA, BEGIN INDUCTION MACHINE DATA
0 / END OF INDUCTION MACHINE DATA
Q
